
**** 05/13/22 02:53:40 ********* PSpice 9.2 (Mar 2000) ******** ID# 1 ********

 ** Profile: "stab1-sweepRs-sc"  [ C:\Users\mvman\projects2\OrCAD\AnaSim\stabilizTensiune\stab_v1-stab1-sweepRs-sc.sim ] 


 ****     CIRCUIT DESCRIPTION


******************************************************************************




** Creating circuit file "stab_v1-stab1-sweepRs-sc.sim.cir" 
** WARNING: THIS AUTOMATICALLY GENERATED FILE MAY BE OVERWRITTEN BY SUBSEQUENT SIMULATIONS

*Libraries: 
* Local Libraries :
* From [PSPICE NETLIST] section of C:\Orcad\PSpice\PSpice.ini file:
.lib "nom.lib" 

*Analysis directives: 
.DC OCT PARAM Rload 0.1 40 5 
.PROBE V(*) I(*) W(*) D(*) NOISE(*) 
.INC ".\stab_v1-stab1.net" 



**** INCLUDING stab_v1-stab1.net ****
* source STAB_V1
R_Rs         VO 0  {Rload}  
R_R         N21878 VI  100k  
R_P         D N592000 {50k*0.25+.001}
R_R5         N50405 N53086  68  
R_R1         VO D  130k  
V_V1         VI 0 15V
D_D1         0 N41071 D1N4733 
R_R2         0 N592000  160k  
Q_Q1         VO N53086 VI QBD136/PLP 
R_Rz         N41071 VO  150  
Q_Q3         N21878 D N41071 BC546A 
Q_Q2         N50405 N21878 N41071 BC546A 
C_C1         VO 0  47u  
.PARAM  Rload=0.01

**** RESUMING stab_v1-stab1-sweepRs-sc.sim.cir ****
.END

**** 05/13/22 02:53:40 ********* PSpice 9.2 (Mar 2000) ******** ID# 1 ********

 ** Profile: "stab1-sweepRs-sc"  [ C:\Users\mvman\projects2\OrCAD\AnaSim\stabilizTensiune\stab_v1-stab1-sweepRs-sc.sim ] 


 ****     Diode MODEL PARAMETERS


******************************************************************************




               D1N4733         
          IS    1.214000E-15 
         ISR    2.601000E-09 
          BV    5.1          
         IBV     .70507      
         NBV     .74348      
        IBVL    4.827400E-03 
        NBVL    6.7393       
          RS    1.078        
         CJO  185.000000E-12 
          VJ     .75         
           M     .3509       
        TBV1  176.471000E-06 


**** 05/13/22 02:53:40 ********* PSpice 9.2 (Mar 2000) ******** ID# 1 ********

 ** Profile: "stab1-sweepRs-sc"  [ C:\Users\mvman\projects2\OrCAD\AnaSim\stabilizTensiune\stab_v1-stab1-sweepRs-sc.sim ] 


 ****     BJT MODEL PARAMETERS


******************************************************************************




               QBD136/PLP      BC546A          
               PNP             NPN             
          IS   74.010000E-15    7.049000E-15 
          BF  336.5           253            
          NF     .9938          1            
         VAF   22.47          127.9          
         IKF     .1689           .07705      
         ISE  410.400000E-18   96.260000E-15 
          NE    1.054           1.556        
          BR   13.91            1            
          NR     .9913          1            
         VAR   30                            
         IKR     .09888         3.321        
         ISC   12.900000E-15  130.800000E-15 
          NC    1.1             1.602        
          NK                     .5305       
          RB     .5                          
         RBM     .5                          
         IRB    1.000000E-06                 
          RE     .208                        
          RC     .05526          .8766       
         CJE  106.600000E-12   11.500000E-12 
         VJE     .69             .5          
         MJE     .3676           .6715       
         CJC   52.340000E-12    5.250000E-12 
         VJC     .6431           .5697       
         MJC     .4436           .3147       
        XCJC     .44                         
         MJS     .333                        
          FC     .99                         
          TF  257.800000E-12  409.500000E-12 
         XTF   13.56           40.12         
         VTF    2.366          10            
         ITF    1.304           1.994        
          TR  100.000000E-27   10.000000E-09 
         XTB                    1.5          
          CN    2.2             2.42         
           D     .52             .87         



          JOB CONCLUDED

          TOTAL JOB TIME             .02
