
**** 05/12/22 17:19:54 ********* PSpice 9.2 (Mar 2000) ******** ID# 1 ********

 ** Profile: "stab2Prot2-sweep_Rs_vI"  [ C:\Users\mvman\projects2\OrCAD\AnaSim\stabilizTensiune\stab_v1-stab2Prot2-sweep_Rs_vI.sim ] 


 ****     CIRCUIT DESCRIPTION


******************************************************************************




** Creating circuit file "stab_v1-stab2Prot2-sweep_Rs_vI.sim.cir" 
** WARNING: THIS AUTOMATICALLY GENERATED FILE MAY BE OVERWRITTEN BY SUBSEQUENT SIMULATIONS

*Libraries: 
* Local Libraries :
* From [PSPICE NETLIST] section of C:\Orcad\PSpice\PSpice.ini file:
.lib "nom.lib" 

*Analysis directives: 
.DC LIN PARAM Rload 101 31 -2 
+ V_V1 LIST 10 10.1 10.2 10.4 11 13 15 
.PROBE V(*) I(*) W(*) 
.INC ".\stab_v1-stab2Prot2.net" 



**** INCLUDING stab_v1-stab2Prot2.net ****
* source STAB_V1
X_Q5         VI N59015 D BCV47
R_R1         VO D  130k  
Q_Q1         VO N53086 N19462 QBD136/PLP 
Q_Q4         N59015 N19462 VI BC558A 
R_R2         0 N363190  160k  
C_C1         VO 0  47u  
R_R         N21831 VI  100K  
Q_Q2         N50405 N21831 N41071 BC546A 
V_V1         VI 0 10V
D_D1         0 N41071 D1N4733 
R_R6/1W         VI N19462  560mOhm  
Q_Q3         N21831 D N41071 BC546A 
R_P         D N363190 {50k*0.25+.001}
R_R5         N50405 N53086  68  
R_Rz         N41071 VO  150  
R_Rs         VO 0  {Rload}  
.PARAM  Rload=31

**** RESUMING stab_v1-stab2Prot2-sweep_Rs_vI.sim.cir ****
.END

**** 05/12/22 17:19:54 ********* PSpice 9.2 (Mar 2000) ******** ID# 1 ********

 ** Profile: "stab2Prot2-sweep_Rs_vI"  [ C:\Users\mvman\projects2\OrCAD\AnaSim\stabilizTensiune\stab_v1-stab2Prot2-sweep_Rs_vI.sim ] 


 ****     Diode MODEL PARAMETERS


******************************************************************************




               D1N4733         X_Q5.Dmodel     
          IS    1.214000E-15   10.000000E-15 
         ISR    2.601000E-09                 
          BV    5.1                          
         IBV     .70507                      
         NBV     .74348                      
        IBVL    4.827400E-03                 
        NBVL    6.7393                       
          RS    1.078           1.000000E-03 
         CJO  185.000000E-12   10.000000E-21 
          VJ     .75                         
           M     .3509                       
        TBV1  176.471000E-06                 


**** 05/12/22 17:19:54 ********* PSpice 9.2 (Mar 2000) ******** ID# 1 ********

 ** Profile: "stab2Prot2-sweep_Rs_vI"  [ C:\Users\mvman\projects2\OrCAD\AnaSim\stabilizTensiune\stab_v1-stab2Prot2-sweep_Rs_vI.sim ] 


 ****     BJT MODEL PARAMETERS


******************************************************************************




               QBD136/PLP      BC558A          BC546A          X_Q5.Q1model    
               PNP             PNP             NPN             NPN             
          IS   74.010000E-15    1.020000E-15    7.049000E-15   28.882050E-15 
          BF  336.5           174.7           253             327.434        
          NF     .9938          1               1               1            
         VAF   22.47           73.79          127.9           100            
         IKF     .1689           .1023           .07705         1.21592      
         ISE  410.400000E-18   10.730000E-15   96.260000E-15    2.917181E-15 
          NE    1.054           1.644           1.556           1.26311      
          BR   13.91            4.432           1               1.1125       
          NR     .9913          1               1               1            
         VAR   30                                             100            
         IKR     .09888         2.237           3.321          48.307800E-06 
         ISC   12.900000E-15   14.740000E-15  130.800000E-15   13.715500E-15 
          NC    1.1             1.296           1.602           2.00409      
          NK                     .5033           .5305           .675285     
          RB     .5                                            19.98         
         RBM     .5                                                          
         IRB    1.000000E-06                                                 
          RE     .208                                                        
          RC     .05526         1.039            .8766           .018801     
         CJE  106.600000E-12   30.000000E-12   11.500000E-12   13.300000E-12 
         VJE     .69             .5              .5              .35         
         MJE     .3676           .3333           .6715           .25875      
         CJC   52.340000E-12    9.810000E-12    5.250000E-12    8.502000E-12 
         VJC     .6431           .4865           .5697                       
         MJC     .4436           .332            .3147           .3333       
        XCJC     .44                                             .9          
         MJS     .333                                                        
          FC     .99                                                         
          TF  257.800000E-12  830.300000E-12  409.500000E-12    1.000000E-09 
         XTF   13.56           10.32           40.12           10            
         VTF    2.366          10              10              10            
         ITF    1.304            .8981          1.994           1            
          TR  100.000000E-27   10.000000E-09   10.000000E-09    1.000000E-09 
         XTB                    1.5             1.5                          
          CN    2.2             2.2             2.42            2.42         
           D     .52             .52             .87             .87         


               X_Q5.Q2model    
               NPN             
          IS   28.882050E-15 
          BF  327.434        
          NF    1            
         VAF  100            
         IKF    1.21592      
         ISE    2.917181E-15 
          NE    1.26311      
          BR    1.1125       
          NR    1            
         VAR  100            
         IKR   48.307800E-06 
         ISC   13.715500E-15 
          NC    2.00409      
          NK     .675285     
          RB   19.98         
          RC     .018801     
         CJE   13.300000E-12 
         VJE     .35         
         MJE     .25875      
         MJC     .3333       
        XCJC     .9          
          TF    1.000000E-09 
         XTF   10            
         VTF   10            
         ITF    1            
          TR    1.000000E-09 
          CN    2.42         
           D     .87         



          JOB CONCLUDED

          TOTAL JOB TIME             .05
