
**** 05/02/22 02:51:08 ********* PSpice 9.2 (Mar 2000) ******** ID# 1 ********

 ** Profile: "stab2Prot2-DCsweep1"  [ C:\Users\mvman\projects2\OrCAD\AnaSim\stabilizTensiune\stab_v1-stab2Prot2-DCsweep1.sim ] 


 ****     CIRCUIT DESCRIPTION


******************************************************************************




** Creating circuit file "stab_v1-stab2Prot2-DCsweep1.sim.cir" 
** WARNING: THIS AUTOMATICALLY GENERATED FILE MAY BE OVERWRITTEN BY SUBSEQUENT SIMULATIONS

*Libraries: 
* Local Libraries :
* From [PSPICE NETLIST] section of C:\Orcad\PSpice\PSpice.ini file:
.lib "nom.lib" 

*Analysis directives: 
.DC LIN V_V1 10 15 0.5 
.PROBE V(*) I(*) W(*) D(*) NOISE(*) 
.INC ".\stab_v1-stab2Prot2.net" 



**** INCLUDING stab_v1-stab2Prot2.net ****
* source STAB_V1
D_D2         VIN N42781 MLED81
R_R1         OUT D  270k  
Q_Q1         OUT N37591 VIN QBD136/PLP 
D_D1         0 N41071 D02CZ5_1 
Q_Q4         N39979 VIN VIN BC558A 
R_R2         0 N363190  360k  
C_C1         OUT 0  4.7u  
R_R4         N21831 VIN  33k  
Q_Q5         N42781 N39979 N37591 BC107BP/ZTX 
Q_Q2         N37591 N21831 N41071 BC546A 
V_V1         VIN 0 10
Q_Q3         N21831 D N41071 BC546A 
R_R3         D N363190 {100k*0.45+.001}
R_R5/2W         VIN VIN  1Ohm  
R_Rz         N41071 OUT  220  
R_Rs         OUT 0  {Rload}  
.PARAM  Rload=35

**** RESUMING stab_v1-stab2Prot2-DCsweep1.sim.cir ****
.END

**** 05/02/22 02:51:08 ********* PSpice 9.2 (Mar 2000) ******** ID# 1 ********

 ** Profile: "stab2Prot2-DCsweep1"  [ C:\Users\mvman\projects2\OrCAD\AnaSim\stabilizTensiune\stab_v1-stab2Prot2-DCsweep1.sim ] 


 ****     Diode MODEL PARAMETERS


******************************************************************************




               MLED81          D02CZ5_1        
          IS   10.000000E-09    9.086000E-12 
           N    1.1248          1.395        
         ISR   10.010000E-21  664.700000E-09 
         IKF   45.752000E-15     .11         
          BV    5.4169          5.198        
         IBV   10                .1478       
          RS    1.2366                       
          TT    5.000000E-09    5.000000E-09 
         CJO   25.000000E-12  406.200000E-12 
          VJ     .75            5            
           M     .3333          1.548        


**** 05/02/22 02:51:08 ********* PSpice 9.2 (Mar 2000) ******** ID# 1 ********

 ** Profile: "stab2Prot2-DCsweep1"  [ C:\Users\mvman\projects2\OrCAD\AnaSim\stabilizTensiune\stab_v1-stab2Prot2-DCsweep1.sim ] 


 ****     BJT MODEL PARAMETERS


******************************************************************************




               QBD136/PLP      BC558A          BC546A          BC107BP/ZTX     
               PNP             PNP             NPN             NPN             
          IS   74.010000E-15    1.020000E-15    7.049000E-15   18.000000E-15 
          BF  336.5           174.7           253             400            
          NF     .9938          1               1                .9955       
         VAF   22.47           73.79          127.9            80            
         IKF     .1689           .1023           .07705          .14         
         ISE  410.400000E-18   10.730000E-15   96.260000E-15   50.000000E-15 
          NE    1.054           1.644           1.556           1.46         
          BR   13.91            4.432           1              35.5          
          NR     .9913          1               1               1.005        
         VAR   30                                              12.5          
         IKR     .09888         2.237           3.321            .03         
         ISC   12.900000E-15   14.740000E-15  130.800000E-15  172.000000E-15 
          NC    1.1             1.296           1.602           1.27         
          NK                     .5033           .5305                       
          RB     .5                                              .56         
         RBM     .5                                                          
         IRB    1.000000E-06                                                 
          RE     .208                                            .6          
          RC     .05526         1.039            .8766           .25         
         CJE  106.600000E-12   30.000000E-12   11.500000E-12   13.000000E-12 
         VJE     .69             .5              .5                          
         MJE     .3676           .3333           .6715                       
         CJC   52.340000E-12    9.810000E-12    5.250000E-12    4.000000E-12 
         VJC     .6431           .4865           .5697           .54         
         MJC     .4436           .332            .3147                       
        XCJC     .44                                                         
         MJS     .333                                                        
          FC     .99                                                         
          TF  257.800000E-12  830.300000E-12  409.500000E-12  640.000000E-12 
         XTF   13.56           10.32           40.12                         
         VTF    2.366          10              10                            
         ITF    1.304            .8981          1.994                        
          TR  100.000000E-27   10.000000E-09   10.000000E-09   50.720000E-09 
         XTB                    1.5             1.5                          
          CN    2.2             2.2             2.42            2.42         
           D     .52             .52             .87             .87         



          JOB CONCLUDED

          TOTAL JOB TIME             .02
